<?xml version="1.0" encoding="UTF-8"?>

<!-- generated on 2022-05-16 00:29:31 by Eclipse SUMO duarouter Version 1.13.0
<configuration xmlns:xsi="http://www.w3.org/2001/XMLSchema-instance" xsi:noNamespaceSchemaLocation="http://sumo.dlr.de/xsd/duarouterConfiguration.xsd">

    <input>
        <net-file value="FresnoState.net.xml"/>
        <route-files value="FresnoState.trips.xml"/>
    </input>

    <output>
        <output-file value="FresnoState.rou.xml"/>
        <alternatives-output value="FresnoState.rou.alt.xml"/>
    </output>

</configuration>
-->

<routes xmlns:xsi="http://www.w3.org/2001/XMLSchema-instance" xsi:noNamespaceSchemaLocation="http://sumo.dlr.de/xsd/routes_file.xsd">
    <vehicle id="0" depart="0.00">
        <route edges="228839117#3 228839116#0 228839116#1 228839116#2 920597800#0 920597800#1 548455118#1 548455118#2 548455118#3 598802477#0 598802477#1 260983152#1 260983152#2 260983152#3 598802473#0 598802473#1 598802476 742221835#0 742221835#1 742221835#2 742221835#3 742221835#4 620805864#1 260983158#1 260983158#2 260983158#3 260983158#4 260983158#5 620805877 -908633654 -908633655 -364968927#28 -364968927#27 -364968927#26 -364968927#25 -364968927#24 -364968927#23 -364968927#22 -364968927#21 -364968927#19 -364968927#18 -364968927#17 -364968927#16 -364968927#15 10341720#0 10341720#1 10341720#2 -10341720#2"/>
    </vehicle>
    <vehicle id="1" depart="1.00">
        <route edges="-548455122#1 -548455122#0 620805869#1 260983158#5 620805877 -908633654 -908633655 -364968927#28 -364968927#27 -364968927#26 -364968927#25 -364968927#24 -364968927#23 -364968927#22 -364968927#21 -364968927#19 -364968927#18 -364968927#17 -364968927#16 -364968927#15 -364968927#14 -364968927#13 -364968927#12 -364968927#10 -364968927#9 -364968927#8 -364968927#5 -359413266#6 -359413266#4 -359413266#3"/>
    </vehicle>
    <vehicle id="2" depart="2.00">
        <route edges="36343775#0 36343775#1 10349219#3 1009061518#3 1009061518#4 1009061518#5 1009061518#6 1009061518#7 1009061518#8 1009061518#9 1009061518#10 1051742507#0 1051742507#1 1051742507#2 1051742507#3 1051742507#4 1051742507#5 1051742507#6 228827453#0 228827453#1 228827453#2 228827453#3 228827453#4 228827453#5 228827453#6 228827453#7 228827453#8 920597800#0 920597800#1 548455118#1 548455118#2 548455118#3 598802477#0 598802477#1 260983152#1 260983152#2 260983152#3 598802473#0 598802473#1 598802476 742221835#0 742221835#1 742221835#2 742221835#3 742221835#4 620805864#1 260983158#1 620805861#0 620805861#1 260983148#0 260983148#1 260983148#2"/>
    </vehicle>
    <vehicle id="3" depart="3.00">
        <route edges="712073594#1 712073594#2 712073594#3 712073592 -364968927#24 -364968927#23 -364968927#22 -364968927#21 -364968927#19 -364968927#18 -364968927#17 -364968927#16 -364968927#15 -364968927#14 -364968927#13 -364968927#12 -364968927#10 -364968927#9 -364968927#8 -364968927#5 -359413266#6 -359413266#4 -359413266#3 -359413266#2 -359413266#1 -359413266#0 -10346377#0 -10346377#1"/>
    </vehicle>
    <vehicle id="4" depart="4.00">
        <route edges="10345712#5 10337196#1 10337196#2 931355205#2 228839136 -10341980#2 -10341980#1"/>
    </vehicle>
    <vehicle id="5" depart="5.00">
        <route edges="-364968923#0 10346449#1 10346449#2 10346449#3 364968927#8 364968927#9 364968927#10 364968927#12 364968927#13 364968927#14 364968927#15 364968927#16 364968927#17 364968927#18 364968927#19 -10350283#19 -10350283#18 -10350283#17 -10350283#16 -10350283#15 -10350283#14 -10350283#13 -10350283#11 -10350283#10 -10350283#8 -10350283#7 -10350283#6 10350283#6 10350283#7 10350283#8 10350283#10 10350283#11 10350283#13 10350283#14 10350283#15 10350283#16"/>
    </vehicle>
    <vehicle id="6" depart="6.00">
        <route edges="-10341980#2 -10341980#1 10341980#1 10341980#2 1051742507#2 1051742507#3 1051742507#4 1051742507#5 1051742507#6 228827453#0 228827453#1 228827453#2 228827453#3 228827453#4 228827453#5 228827453#6 228827453#7 228827453#8 1051742505#0 1051742505#1 1051742505#2 1051742505#3 920597802#0 920597802#1 920597802#2 228839118#0 228839118#1 742447394#0 742447394#1 742447394#2 742447394#3 364435710#4 364435710#5 364435710#6 227941165#1 227941165#2 227941165#3 227941165#4 227941165#5 227941142#1 -260983148#4 -260983148#3 -260983148#2 -260983148#1 -260983148#0"/>
    </vehicle>
    <vehicle id="7" depart="7.00">
        <route edges="228839123 228839142 228839116#0 228839116#1 228839116#2 928810915#0 928810915#1 931355205#0 1051742507#4 1051742507#5"/>
    </vehicle>
    <vehicle id="8" depart="8.00">
        <route edges="-364968923#1 -364968923#0 10346449#1 10346449#2 10346449#3 -364968927#5 -364968927#2 -364968927#1 -364968927#0 920595231#5 920595231#6 920595231#7 920595231#8 920595231#9 920595231#10 920595231#11 920595231#12 920595231#13 1051742507#0 1051742507#1 1051742507#2 1051742507#3 1051742507#4 1051742507#5 1051742507#6 228827453#0 228827453#1"/>
    </vehicle>
    <vehicle id="9" depart="9.00">
        <route edges="41435715#1 802334571#0 227941143 227941136#1 227941136#2 227941136#3 227941136#4 227941137#1 928810911#0 928810911#1 928810911#2 928810911#3 928810911#4 228839117#0 228839117#1 228839117#2 228839117#3 228839116#0 228839116#1 228839116#2 928810915#0 928810915#1 931355205#0 931355205#1 931355205#2 931355205#3 1009080019#1 1009080019#2 228839115#1 228839115#2 228839115#3 228831161 -10349219#3 -36343775#1 -10336493#3 -10336493#2"/>
    </vehicle>
    <vehicle id="10" depart="10.00">
        <route edges="364968933#0 364968933#1 364968927#0 364968927#1 364968927#2 364968927#5 364968927#8 364968927#9 364968927#10 364968927#12 364968927#13 364968927#14 364968927#15 364968927#16 364968927#17 364968927#18 364968927#19 364968927#21 364968927#22 364968927#23 364968927#24 364968927#25 364968927#26 364968927#27 364968927#28 908633655 908633654 908633653 260983158#7 260983158#8 260983158#1 260983158#2"/>
    </vehicle>
    <vehicle id="13" depart="13.00">
        <route edges="-10347477#1 10347477#1 10347477#2 227941136#1 227941136#2 227941136#3 227941136#4 227941137#1 928810911#0 928810911#1 928810911#2 928810911#3 928810911#4 228839117#0 228839117#1 228839117#2 228839117#3 228839116#0 228839116#1 228839116#2 928810915#0 928810915#1 228827453#0 -10346623#3 -10346623#2 -10346623#1 -10346623#0"/>
    </vehicle>
    <vehicle id="14" depart="14.00">
        <route edges="598802477#1 260983152#1 260983152#2 260983152#3 260983152#4 260983152#5 260983152#6 260983152#7 598802478#0 598802478#1 -548455118#3 -548455118#2 -548455118#1 -548455118#0 -920597800#0 928810915#0 928810915#1 931355205#0 931355205#1 931355205#2 931355205#3 1009080019#1 1009080019#2 228839115#1 228839115#2 228839115#3 228839115#4 228831160#0 228831160#1"/>
    </vehicle>
    <vehicle id="15" depart="15.00">
        <route edges="364968933#1 364968927#0 364968927#1 364968927#2 -359413266#6 -359413266#4 -359413266#3 359413266#3"/>
    </vehicle>
    <vehicle id="16" depart="16.00">
        <route edges="1051742505#2 1051742505#3 920597802#0 920597802#1 920597802#2 228839118#0 228839118#1 742447394#0 742447394#1 742447394#2 742447394#3 928810911#0"/>
    </vehicle>
    <vehicle id="17" depart="17.00">
        <route edges="10343258#1 10343258#2 10343258#3 -10341720#2 -10341720#1 -10341720#0 364968927#15 364968927#16 364968927#17 364968927#18 364968927#19 -10350283#19 -10350283#18 -10350283#17 -10350283#16 -10350283#15 -10350283#14 -10350283#13 -10350283#11 -10350283#10 -10350283#8 -10350283#7 -10350283#6 928810915#1 1051742511#0"/>
    </vehicle>
    <vehicle id="18" depart="18.00">
        <route edges="48976939#0-AddedOffRampEdge 228839141 228839120 228839121 228839116#2 928810915#0 928810915#1 931355205#0 931355205#1 931355205#2 931355205#3 1009080019#1 1009080019#2 228839115#1"/>
    </vehicle>
    <vehicle id="19" depart="19.00">
        <route edges="620805861#1 260983148#0 260983148#1 260983148#2 260983148#3 260983148#4 227941143 227941136#1 227941136#2 227941136#3 598802483 227941165#1 227941165#2"/>
    </vehicle>
    <vehicle id="20" depart="20.00">
        <route edges="260983158#5 620805877 -908633654 -908633655 -364968927#28 -364968927#27 -364968927#26 -364968927#25 -364968927#24 -364968927#23 -364968927#22 -364968927#21 -364968927#19 -364968927#18 -364968927#17 -364968927#16 -364968927#15 -364968927#14 -364968927#13 -364968927#12 -364968927#10 -364968927#9 -364968927#8 -364968927#5 -364968927#2 -364968927#1 -364968927#0 920595231#5 920595231#6 -10343494#7 -10343494#6 -10343494#4 -10343494#3 -10343494#2 -10343494#1 -10343494#0"/>
    </vehicle>
    <vehicle id="21" depart="21.00">
        <route edges="-364968927#10 -364968927#9 -364968927#8 364968927#8 364968927#9 364968927#10 364968927#12 364968927#13 364968927#14 364968927#15 364968927#16 364968927#17 364968927#18 364968927#19 364968927#21 364968927#22 364968927#23 364968927#24 364968927#25 364968927#26 364968927#27 364968927#28 908633655 908633654 908633653 260983158#7 620805864#0 -742221835#4 -742221835#3 -742221835#2 -742221835#1 -742221835#0 -598802476 260983159#0 260983159#1 260983152#5 260983152#6 260983152#7 598802478#0 598802478#1 -548455118#3"/>
    </vehicle>
    <vehicle id="22" depart="22.00">
        <route edges="-10346449#0 364968923#1 364968923#2 359413266#3 359413266#4 359413266#6 -364968927#2 -364968927#1 -364968927#0 920595231#5 920595231#6 920595231#7 920595231#8 920595231#9 920595231#10 920595231#11 920595231#12 920595231#13 1009080019#1 1009080019#2 228839115#1 228839115#2 228839115#3 228831161 1009061518#3 -36343775#2"/>
    </vehicle>
    <vehicle id="23" depart="23.00">
        <route edges="-10347749#1 364968933#1 364968927#0 364968927#1 364968927#2 364968927#5 364968927#8 364968927#9 364968927#10 364968927#12 -364968927#12 -364968927#10 -364968927#9"/>
    </vehicle>
    <vehicle id="24" depart="24.00">
        <route edges="228839117#1 228839117#2 228839117#3 228839116#0 228839116#1 228839116#2 928810915#0 228827453#2 228827453#3 228827453#4 228827453#5 -10339367#3 -10339367#2 -10339367#1 -10339367#0 10339367#0 10339367#1"/>
    </vehicle>
    <vehicle id="25" depart="25.00">
        <route edges="10341720#2 -10341720#2 -10341720#1 -10341720#0 -364968927#14 -364968927#13 -364968927#12 -364968927#10 -364968927#9 -364968927#8 -364968927#5 -364968927#2 -364968927#1 -364968927#0 920595231#5 920595231#6 920595231#7 920595231#8 920595231#9 920595231#10 920595231#11 920595231#12 920595231#13 1009080019#1 1009080019#2 228839115#1 228839115#2 228839115#3 228839115#4 228831160#0 -260983667#1"/>
    </vehicle>
    <vehicle id="26" depart="26.00">
        <route edges="-548455118#0 -920597800#0 928810915#0 928810915#1 931355205#0 931355205#1 931355205#2 931355205#3 445984191#0 445984191#0-AddedOffRampEdge 658684698 920595231#12"/>
    </vehicle>
    <vehicle id="27" depart="27.00">
        <route edges="228839121 228839116#2 928810915#0 928810915#1 931355205#0 931355205#1 931355205#2 931355205#3 1009080019#1 1009080019#2 228839115#1 228839115#2 228839115#3 228839115#4 228831160#0 228831160#1 228831160#2 228831160#3 228831160#7"/>
    </vehicle>
    <vehicle id="28" depart="28.00">
        <route edges="-10350584#2 -10350584#1 -10350584#0 10350584#0 10350584#1 10350584#2 10347477#1 10347477#2 227941165#5 227941142#1 -260983148#4 -260983148#3 -260983148#2 -260983148#1 -260983148#0 620805861#2 260983158#3 260983158#4 260983158#5 620805877 -908633654 -908633655 -364968927#28 -364968927#27 -364968927#26 -364968927#25 -364968927#24 -364968927#23 -364968927#22 -364968927#21 -364968927#19 -364968927#18 -364968927#17 -364968927#16 -364968927#15 -364968927#14 -364968927#13 -364968927#12 -364968927#10 -364968927#9 -364968927#8 -364968927#5 -359413266#6 -359413266#4 -359413266#3 -359413266#2 -359413266#1 -359413266#0 359413266#0 359413266#1 359413266#2"/>
    </vehicle>
    <vehicle id="29" depart="29.00">
        <route edges="-10350283#8 -10350283#7 -10350283#6 928810915#1 931355205#0 931355205#1 931355205#2 228839136 -10341980#2 -10341980#1 10341980#1 10341980#2"/>
    </vehicle>
    <vehicle id="30" depart="30.00">
        <route edges="931355205#3 1051742507#0 1051742507#1 1051742507#2 1051742507#3 1051742507#4 1051742507#5 1051742507#6 228827453#0 228827453#1 228827453#2 228827453#3 228827453#4 228827453#5 228827453#6 228827453#7 228827453#8 1051742505#0 1051742505#1 1051742505#2 1051742505#3 920597802#0 920597802#1 920597802#2 228839118#0 228839118#1 742447394#0 742447394#1 742447394#2 742447394#3 928810911#0 928810911#1 928810911#2 928810911#3 928810911#4 228839117#0 228839117#1 228839117#2 228839117#3"/>
    </vehicle>
    <vehicle id="31" depart="31.00">
        <route edges="1051742511#1 1051742508#0 1051742508#1 228827453#0 228827453#1 228827453#2 228827453#3 228827453#4 228827453#5 228827453#6 228827453#7 228827453#8 920597800#0 920597800#1 548455118#1 548455118#2 548455118#3 598802477#0 598802477#1 260983152#1 260983152#2"/>
    </vehicle>
    <vehicle id="32" depart="32.00">
        <route edges="598802476 742221835#0 742221835#1 742221835#2 742221835#3 742221835#4 620805864#1 260983158#1 260983158#2 260983158#3 260983158#4 260983158#5 620805877 -908633654 -908633655 -364968927#28 -364968927#27 -364968927#26 -364968927#25 -364968927#24 -364968927#23 -364968927#22 364968927#22 364968927#23"/>
    </vehicle>
    <vehicle id="33" depart="33.00">
        <route edges="-364968927#12 -364968927#10 -364968927#9 -364968927#8 364968927#8 364968927#9 364968927#10 364968927#12 364968927#13 364968927#14 10341720#0 10341720#1 10341720#2 -10343258#3 -10343258#2 -10343258#1"/>
    </vehicle>
    <vehicle id="34" depart="34.00">
        <route edges="-908633654 -908633655 -364968927#28 -364968927#27 -364968927#26 -364968927#25"/>
    </vehicle>
    <vehicle id="35" depart="35.00">
        <route edges="-359413266#4 -359413266#3 359413266#3 359413266#4 359413266#6 -364968927#2 -364968927#1 -364968927#0 920595231#5 920595231#6 920595231#7 920595231#8 920595231#9 920595231#10 920595231#11 920595231#12 920595231#13 920595231#15 920595231#16"/>
    </vehicle>
    <vehicle id="36" depart="36.00">
        <route edges="658684698 920595231#12 920595231#13 1051742507#0 1051742507#1 1051742507#2 1051742507#3 1051742507#4 1051742507#5 1051742507#6 228827453#0 228827453#1 228827453#2 228827453#3 228827453#4 228827453#5 228827453#6 228827453#7 228827453#8 920597800#0 920597800#1 548455118#1 548455118#2 548455118#3 598802477#0 598802477#1 260983152#1 260983152#2 260983152#3 598802473#0 598802473#1 598802476 742221835#0 742221835#1 742221835#2 742221835#3 742221835#4 -742221835#4 -742221835#3 -742221835#2 -742221835#1"/>
    </vehicle>
    <vehicle id="38" depart="38.00">
        <route edges="742447394#3 928810911#0 928810911#1 928810911#2 928810911#3 928810911#4 228839117#0 228839117#1 228839117#2 228839117#3 228839116#0 228839116#1 228839116#2 928810915#0 928810915#1 931355205#0 931355205#1 931355205#2 931355205#3 445984191#0 445984191#0-AddedOffRampEdge 445984191#1 445984191#2 445984191#3 445984191#4 445984191#5 364968928#2 364968928#3 364968928#4 364968928#5 364968928#6 10347749#1 10347749#2 10347749#3"/>
    </vehicle>
    <vehicle id="39" depart="39.00">
        <route edges="-41435715#1 41435715#1 802334571#0 -260983148#4 -260983148#3 -260983148#2 -260983148#1 -260983148#0 620805861#2 260983158#3 260983158#4 260983158#5 620805877 -908633654 -908633655 -364968927#28 -364968927#27 -364968927#26 -364968927#25 -364968927#24 -364968927#23 -364968927#22 -364968927#21 -364968927#19 -364968927#18 -364968927#17 -364968927#16 -364968927#15 -364968927#14 -364968927#13"/>
    </vehicle>
    <vehicle id="41" depart="41.00">
        <route edges="227941165#5 227941142#1 -260983148#4 -260983148#3 -260983148#2 -260983148#1 -260983148#0 620805861#2 260983158#3 260983158#4 260983158#5 620805877 -908633654 -908633655 -364968927#28 -364968927#27 -364968927#26 -364968927#25 -712073592 712073593#0 712073593#1 712073593#3 712073594#1 712073594#2 712073594#3"/>
    </vehicle>
    <vehicle id="42" depart="42.00">
        <route edges="10343494#6 10343494#7 445984191#4 445984191#5 364968927#0 364968927#1 364968927#2 -359413266#6 -359413266#4 -359413266#3 -359413266#2 -359413266#1 -359413266#0"/>
    </vehicle>
    <vehicle id="43" depart="43.00">
        <route edges="931355206#3 931355206#4 1051742507#0 1051742507#1 1051742507#2 1051742507#3 1051742507#4 1051742507#5 1051742507#6 228827453#0 228827453#1 10350283#6 10350283#7 10350283#8 10350283#10 10350283#11 10350283#13 10350283#14 10350283#15 10350283#16 10350283#17 10350283#18"/>
    </vehicle>
    <vehicle id="44" depart="44.00">
        <route edges="-10346623#3 -10346623#2 -10346623#1 -10346623#0 10346623#0 10346623#1 10346623#2 10346623#3 228827453#1 928810915#1 931355205#0 931355205#1 931355205#2 931355205#3 445984191#0 445984191#0-AddedOffRampEdge 445984191#1 445984191#2 445984191#3 -10343494#7 -10343494#6 -10343494#4 -10343494#3 -10343494#2 -10343494#1"/>
    </vehicle>
    <vehicle id="45" depart="45.00">
        <route edges="-10347749#5 -10347749#4 -10347749#3 -10347749#2 -10347749#1 364968933#1 920595231#5 920595231#6 920595231#7 920595231#8 920595231#9 920595231#10 920595231#11 920595231#12 920595231#13 1009080019#1 1009080019#2 228839115#1 228839115#2 228839115#3 228839115#4 228839115#5 228839115#6"/>
    </vehicle>
    <vehicle id="46" depart="46.00">
        <route edges="364968927#5 -364968927#5 -364968927#2 -364968927#1 -364968927#0 920595231#5 920595231#6 920595231#7 920595231#8 920595231#9 920595231#10 920595231#11 920595231#12 920595231#13 1051742507#0 1051742507#1 -10341980#2 -10341980#1 10345712#2 10345712#3 10345712#4 10345712#5"/>
    </vehicle>
    <vehicle id="47" depart="47.00">
        <route edges="-10345712#2 -10345712#1 -10345712#0 931355206#3 931355206#4 445984191#0 445984191#0-AddedOffRampEdge 445984191#1 445984191#2 445984191#3 445984191#4 445984191#5 364968927#0 364968927#1 364968927#2 364968927#5 364968927#8 364968927#9 364968927#10 364968927#12 364968927#13 364968927#14 10341720#0 10341720#1 10341720#2 -10343258#3 -10343258#2 -10343258#1 10343258#1"/>
    </vehicle>
    <vehicle id="48" depart="48.00">
        <route edges="931355206#2 931355206#3 931355206#4 1051742507#0 1051742507#1 1051742507#2 1051742507#3 1051742507#4 1051742507#5 1051742507#6 228827453#0 228827453#1 228827453#2 228827453#3 228827453#4 228827453#5 228827453#6 228827453#7 228827453#8 1051742505#0"/>
    </vehicle>
    <vehicle id="50" depart="50.00">
        <route edges="-10339367#1 -10339367#0 10339367#0 10339367#1 10339367#2 10339367#3 228827453#6 228827453#7 228827453#8 928810915#0 928810915#1 931355205#0 931355205#1 931355205#2 931355205#3 1009080019#1 1009080019#2 228839115#1 228839115#2 228839115#3 228839115#4 228831160#0 260983667#2 260983667#3 260983667#4"/>
    </vehicle>
    <vehicle id="51" depart="51.00">
        <route edges="260983148#4 227941143 227941136#1 227941136#2 227941136#3 227941136#4 227941137#1 928810911#0 928810911#1 928810911#2 928810911#3 928810911#4 228839117#0 228839117#1 228839117#2 228839117#3 228839116#0 228839116#1 228839116#2 928810915#0 928810915#1 931355205#0 931355205#1 931355205#2 931355205#3 1051742507#0 1051742507#1"/>
    </vehicle>
    <vehicle id="52" depart="52.00">
        <route edges="-548455118#0 -920597800#0 1051742505#0 1051742505#1 1051742505#2 1051742505#3 920597802#0 920597802#1 920597802#2 228839118#0"/>
    </vehicle>
    <vehicle id="53" depart="53.00">
        <route edges="-10348577#1 10348577#1 10348577#2 931355205#1 931355205#2 931355205#3 445984191#0 445984191#0-AddedOffRampEdge 445984191#1 445984191#2 445984191#3 445984191#4 445984191#5 364968927#0 364968927#1 364968927#2 -359413266#6 -359413266#4 -359413266#3 -364968923#2 -364968923#1 -364968923#0 10346449#1"/>
    </vehicle>
    <vehicle id="54" depart="54.00">
        <route edges="10347642#1 10347642#2 10347642#3 -10347642#3 -10347642#2 -10347642#1 445984191#3 445984191#4 445984191#5 920595231#5 920595231#6"/>
    </vehicle>
    <vehicle id="55" depart="55.00">
        <route edges="658684516 920595231#16 658684364 931355206#1 931355206#2 931355206#3 931355206#4 445984191#0 445984191#0-AddedOffRampEdge 445984191#1 445984191#2 445984191#3 445984191#4 445984191#5 364968927#0 364968927#1 364968927#2 364968927#5 364968927#8 364968927#9 364968927#10 364968927#12 364968927#13 364968927#14 364968927#15 364968927#16 364968927#17 364968927#18 364968927#19 364968927#21 364968927#22 364968927#23 364968927#24 -364968927#24 -364968927#23 -364968927#22"/>
    </vehicle>
    <vehicle id="56" depart="56.00">
        <route edges="10350283#13 10350283#14 10350283#15 10350283#16 10350283#17 10350283#18 10350283#19 364968927#21 364968927#22 364968927#23 364968927#24 364968927#25 364968927#26 364968927#27 364968927#28 908633655 908633654 908633653 260983158#7 260983158#8 260983158#1 620805861#0 620805861#1 260983148#0 260983148#1 260983148#2 260983148#3 260983148#4 -802334571#0 -41435715#1 -10349157#3 -10349157#2 -10349157#1 -10350583#2 -10350583#1"/>
    </vehicle>
    <vehicle id="57" depart="57.00">
        <route edges="742447394#2 742447394#3 928810911#0 928810911#1 928810911#2 928810911#3 928810911#4 228839117#0 228839117#1 228839117#2 228839117#3 228839116#0 228839116#1 228839116#2 928810915#0 928810915#1 931355205#0 931355205#1 931355205#2 931355205#3 920595231#15 920595231#16 658684364"/>
    </vehicle>
    <vehicle id="58" depart="58.00">
        <route edges="-712073594#2 -712073594#1 -712073594#0 -712073593#1 -712073593#0 712073592 364968927#25 364968927#26 364968927#27 364968927#28 908633655 908633654 908633653 260983158#7 260983158#8 260983158#1 620805861#0 620805861#1 260983148#0 260983148#1 260983148#2 260983148#3 260983148#4 227941143 227941136#1 227941136#2 227941136#3 227941136#4 227941137#1 928810911#0 928810911#1 928810911#2 928810911#3 928810911#4 228839117#0 228839117#1 228839117#2 228839117#3"/>
    </vehicle>
    <vehicle id="59" depart="59.00">
        <route edges="228831160#3 228831160#7 228831160#8 228831160#9 10343494#2 10343494#3 10343494#4 10343494#6 10343494#7 445984191#4 445984191#5 364968927#0 364968927#1 364968927#2 364968927#5 364968927#8 364968927#9 364968927#10 364968927#12 364968927#13 364968927#14 364968927#15 364968927#16 364968927#17 364968927#18 364968927#19 -10350283#19 -10350283#18 -10350283#17 -10350283#16 -10350283#15 -10350283#14 -10350283#13 -10350283#11"/>
    </vehicle>
    <vehicle id="60" depart="60.00">
        <route edges="364968927#12 -364968927#12 -364968927#10 -364968927#9 -364968927#8 -364968927#5 -364968927#2 -364968927#1 -364968927#0 920595231#5 920595231#6 920595231#7 920595231#8 920595231#9 920595231#10 920595231#11 920595231#12 920595231#13 1051742507#0 1051742507#1 1051742507#2"/>
    </vehicle>
    <vehicle id="61" depart="61.00">
        <route edges="364968927#21 364968927#22 364968927#23 364968927#24 364968927#25 364968927#26 364968927#27 364968927#28 908633655 908633654 908633653 260983158#7 620805864#0 -742221835#4 -742221835#3 -742221835#2 -742221835#1 -742221835#0 -598802476 260983159#0 260983159#1 260983152#5 260983152#6 260983152#7 598802478#0 598802478#1 -548455118#3 -548455118#2 -548455118#1 -548455118#0 -920597800#0 1051742505#0 1051742505#1"/>
    </vehicle>
    <vehicle id="62" depart="62.00">
        <route edges="-10335560 10335560 -364968927#21 -10350283#19 -10350283#18 -10350283#17 -10350283#16 -10350283#15 -10350283#14 -10350283#13 -10350283#11 -10350283#10 -10350283#8 -10350283#7 -10350283#6 928810915#1 -767822099#2"/>
    </vehicle>
    <vehicle id="63" depart="63.00">
        <route edges="-10341720#2 -10341720#1 -10341720#0 364968927#15 364968927#16 364968927#17 364968927#18 364968927#19 364968927#21 364968927#22 364968927#23 364968927#24 364968927#25 364968927#26 364968927#27 364968927#28 908633655 908633654"/>
    </vehicle>
    <vehicle id="64" depart="64.00">
        <route edges="658684699 445984191#2 445984191#3 920595231#7 920595231#8 920595231#9 920595231#10 920595231#11 920595231#12 920595231#13 1051742507#0 1051742507#1 1051742507#2 1051742507#3 1051742507#4 1051742507#5 1051742507#6 228827453#0 228827453#1 228827453#2 228827453#3 228827453#4 228827453#5 228827453#6 228827453#7 228827453#8 920597800#0 920597800#1 548455118#1 548455118#2 548455118#3"/>
    </vehicle>
    <vehicle id="65" depart="65.00">
        <route edges="-742221835#3 -742221835#2 -742221835#1 -742221835#0 -598802476 260983159#0 260983159#1 260983152#5 260983152#6 260983152#7 598802478#0 598802478#1 -548455118#3 -548455118#2 -548455118#1 -548455118#0 -920597800#0 -10344818#6 -10344818#4 -10344818#3 -10344818#2 -10344818#1 -10344818#0"/>
    </vehicle>
    <vehicle id="68" depart="68.00">
        <route edges="-10345712#6 10337196#1 10337196#2 931355205#2 931355205#3 445984191#0 445984191#0-AddedOffRampEdge 445984191#1 445984191#2 445984191#3 445984191#4 445984191#5 364968927#0 364968927#1 364968927#2 364968927#5 364968927#8 364968927#9 364968927#10 364968927#12 364968927#13 364968927#14"/>
    </vehicle>
    <vehicle id="69" depart="69.00">
        <route edges="364968927#14 364968927#15 364968927#16 364968927#17 364968927#18 364968927#19 364968927#21 364968927#22 364968927#23 364968927#24 364968927#25 364968927#26 364968927#27 364968927#28 908633655 908633654 908633653 260983158#7 260983158#8 260983158#1 620805861#0 620805861#1 260983148#0 260983148#1 260983148#2 260983148#3 260983148#4 -802334571#0 -41435715#1 -10349157#3 -10349157#2"/>
    </vehicle>
    <vehicle id="70" depart="70.00">
        <route edges="10349157#3 41435715#1 802334571#0 227941143 227941136#1 227941136#2 227941136#3 227941136#4 227941137#1 928810911#0 928810911#1 928810911#2 928810911#3 928810911#4 228839117#0 228839117#1 228839117#2 228839117#3 228839116#0 228839116#1 228839116#2 928810915#0 928810915#1 1051742511#0 1051742511#1 1051742508#0 1051742508#1"/>
    </vehicle>
    <vehicle id="71" depart="71.00">
        <route edges="-41435715#1 41435715#1 802334571#0 227941143 227941136#1 227941136#2 227941136#3 227941136#4 227941137#1 928810911#0 928810911#1 928810911#2 928810911#3 928810911#4 228839117#0 228839117#1 228839117#2 228839117#3 228839116#0 228839116#1 228839116#2 928810915#0 928810915#1 931355205#0 931355205#1 931355205#2 931355205#3 920595231#15 920595231#16 658684364 931355206#1 658684516"/>
    </vehicle>
    <vehicle id="72" depart="72.00">
        <route edges="10345712#6 10348577#1 10348577#2 931355205#1 931355205#2 931355205#3 1009080019#1 1009080019#2 228839115#1 228839115#2 -260983667#5 -260983667#4 -260983667#3 -260983667#2"/>
    </vehicle>
    <vehicle id="73" depart="73.00">
        <route edges="1051742507#0 1051742507#1 1051742507#2 931355205#2 931355205#3 445984191#0 445984191#0-AddedOffRampEdge 445984191#1 445984191#2 445984191#3 445984191#4 445984191#5 364968927#0 364968927#1 364968927#2 -359413266#6 -359413266#4 -359413266#3 359413266#3"/>
    </vehicle>
    <vehicle id="74" depart="74.00">
        <route edges="-260983667#4 -260983667#3 -260983667#2 260983667#2 260983667#3 260983667#4 260983667#5 228839115#3 228831161 1009061518#3 1009061518#4 1009061518#5 1009061518#6 1009061518#7 1009061518#8 1009061518#9 1009061518#10 1051742507#0 1051742507#1 1051742507#2 1051742507#3 1051742507#4 1051742507#5 1051742507#6 228827453#0 228827453#1 228827453#2 228827453#3 228827453#4 228827453#5 228827453#6 228827453#7 228827453#8 920597800#0 920597800#1 548455118#1 548455118#2 548455118#3 598802477#0 598802477#1 260983152#1 260983152#2 260983152#3 598802473#0 598802473#1 598802476 742221835#0 742221835#1 742221835#2 742221835#3 742221835#4 -742221835#4 -742221835#3 -742221835#2 -742221835#1 -742221835#0"/>
    </vehicle>
    <vehicle id="75" depart="75.00">
        <route edges="931355206#2 931355206#3 931355206#4 1051742507#0 1051742507#1 1051742507#2 1051742507#3 1051742507#4 1051742507#5 1051742507#6 228827453#0 228827453#1 228827453#2 228827453#3 228827453#4 228827453#5 228827453#6 228827453#7 228827453#8 1051742505#0 1051742505#1 1051742505#2 1051742505#3 228839122"/>
    </vehicle>
    <vehicle id="76" depart="76.00">
        <route edges="10346449#3 364968927#8 364968927#9 364968927#10 364968927#12 364968927#13 364968927#14 364968927#15 364968927#16 364968927#17 364968927#18 364968927#19 -10350283#19 -10350283#18 -10350283#17 -10350283#16 -10350283#15 -10350283#14 -10350283#13 -10350283#11 -10350283#10 -10350283#8 -10350283#7 -10350283#6 10350283#6 10350283#7"/>
    </vehicle>
    <vehicle id="77" depart="77.00">
        <route edges="-10349219#1 -10349219#0 717179256 10349219#1 10349219#2 10349219#3 1009061518#3 1009061518#4 1009061518#5 1009061518#6 1009061518#7 1009061518#8 1009061518#9 1009061518#10 445984191#0 445984191#0-AddedOffRampEdge 445984191#1 445984191#2 445984191#3 445984191#4 445984191#5 364968927#0 364968927#1 364968927#2 -359413266#6 -359413266#4 -359413266#3"/>
    </vehicle>
    <vehicle id="78" depart="78.00">
        <route edges="1009061518#9 1009061518#10 1051742507#0 1051742507#1 1051742507#2 1051742507#3 1051742507#4 1051742507#5 1051742507#6 228827453#0 228827453#1"/>
    </vehicle>
    <vehicle id="79" depart="79.00">
        <route edges="-364968927#13 -364968927#12 -364968927#10 -364968927#9 -364968927#8 -364968927#5 -359413266#6 -359413266#4 -359413266#3 -359413266#2 -359413266#1"/>
    </vehicle>
    <vehicle id="80" depart="80.00">
        <route edges="-10345712#7 10348577#1 10348577#2 1051742507#4 1051742507#5 1051742507#6 228827453#0 228827453#1 228827453#2 228827453#3 228827453#4 228827453#5 228827453#6 228827453#7 228827453#8 1051742505#0 1051742505#1 1051742505#2 1051742505#3 920597802#0 920597802#1 920597802#2 228839116#0 228839116#1"/>
    </vehicle>
    <vehicle id="81" depart="81.00">